ANAREDE/Deck.PWF
DLIN
(De )d O d(Pa )NcEPM( R% )( X% )(Mvar)(Tap)(Tmn)(Tmx)(Phs)(Bc  )(Cn)(Ce)Ns(Cq)(1)(2)(3)(4)(5)(6)(7)(8)(9)(10
 5814  E   5816 1 
 5814  E   5816 2 
 5816  E   6160 1 
 5816  E   6644 1 
 6143  E   5814 1 
 6143  E   5814 2                                
99999
DBAR
(Num)OETGb(   nome   )Gl( V)( A)( Pg)( Qg)( Qn)( Qm)(Bc  )( Pl)( Ql)( Sh)Are(Vf)M(1)(2)(3)(4)(5)(6)(7)(8)(9)(10
 5814E
 5816E
 6160E
 6644E
99999
FIM